/*--------------------------------*- C++ -*----------------------------------*\
| =========                 |                                                 |
| \\      /  F ield         | OpenFOAM: The Open Source CFD Toolbox           |
|  \\    /   O peration     | Version:  2.2.1                                 |
|   \\  /    A nd           | Web:      www.OpenFOAM.org                      |
|    \\/     M anipulation  |                                                 |
\*---------------------------------------------------------------------------*/
FoamFile
{
    version     2.0;
    format      ascii;
    class       dictionary;
    object      blockMeshDict;
}
// * * * * * * * * * * * * * * * * * * * * * * * * * * * * * * * * * * * * * //

convertToMeters 1;

vertices
(
    (0 0 0)
    (30 0 0)
    (30 5 0)
    (0 5 0)
    (0 0 0.1)
    (30 0 0.1)
    (30 5 0.1)
    (0 5 0.1)
);

blocks
(
    hex (0 1 2 3 4 5 6 7) (500 20 1) simpleGrading (1 1 1)
);

edges
(
);

boundary
(
    boundary2
    {
        type patch;
        faces
        (
            (3 7 6 2)
            (1 5 4 0)
        );
    }
    boundary0
    {
        type patch;
        faces
        (
            (0 4 7 3)
        );
    }
    boundary1
    {
        type patch;
        faces
        (
            (2 6 5 1)
        );
    }
    boundary3
    {
        type empty;
        faces
        (
            (0 3 2 1)
            (4 5 6 7)
        );
    }
);

mergePatchPairs
(
);

// ************************************************************************* //
