// -*- C++ -*-
// File generated by PyFoam - sorry for the ugliness

FoamFile
{
 version 2.0;
 format ascii;
 class volVectorField;
 location "0";
 object U;
}

dimensions [ 0 1 -1 0 0 0 0 ];

internalField uniform (0.1 0 0);

boundaryField
{
  sides
  {
    type fixedValue;
    value uniform ( 0 0 0 );
  }
  inlet
  {
    type fixedValue;
    value uniform ( 0.1 0 0 );
  }
  outlet
  {
    type zeroGradient;
    value uniform (0 0 0);
  }
  frontAndBack
  {
    type empty;
  }
} 	// ************************************************************************* //

